14

C       0.824239763711752      0.065237540456283     -0.077561526198017
C       1.004479931315207     -1.019594851054340      0.986548635173234
H       0.015859854820560     -1.238474679968979      1.411991281031738
C       1.465621331685139     -2.339490056284330      0.340543118495759
O       1.137627338918065     -2.671242220281927     -0.772102378700980
O       2.235513706270821     -3.082055257484838      1.132570856403217
N       1.904449721822418     -0.697460720255575      2.090338027404273
S       2.371805005343246      0.537943746820915     -0.907132426925248
H       0.442405751422374      0.978405960857534      0.387749134325812
H       0.101490477765276     -0.267867312612652     -0.824065216338090
H       2.387527966921814     -2.528971676854868      1.933785153409884
H       1.445226728221417     -0.129022159703092      2.793063445143193
H       2.699353079718121     -0.167404866596056      1.736292167616996
H       2.483808113752553     -0.578992747556116     -1.642625893932263
