14

C       1.101606810977991     -0.000169286708251     -0.090762935377956
C       0.558985796253186     -0.835330022949770      1.081128908279690
H       1.272868514539943     -1.657394908213835      1.265835422205865
C       0.470778214465032     -0.051216303458534      2.383508157124096
O      -0.484869596863439     -0.049246519063181      3.119329773202347
O       1.569740024048373      0.690053104146854      2.628833379983833
N      -0.783625017516749     -1.285480629465505      0.751725656871501
S       2.906538358439636      0.093517287133483     -0.244692209641059
H       0.666455681632466      1.003251124536415     -0.073207904539604
H       0.761374222216161     -0.476411159658964     -1.014355577189255
H       1.332173637154167      1.318671067315812      3.330633138779265
H      -1.276733230562751     -1.534812469650760      1.603482235868453
H      -0.738342247657488     -2.111416424974383      0.164188366158115
H       3.142536579851779      0.675511638711950      0.937861048441625
