14

C       1.107648340099321      0.011949488114883     -0.129467292323701
C       0.825341975926601     -1.016206251898586      0.976766639096552
H       1.673277489401062     -1.722311597877750      1.004415260140471
C       0.764199722640133     -0.392372809249253      2.362979394546444
O       0.011918343167284     -0.747594754912227      3.237912206918701
O       1.669279243895492      0.586519757152595      2.546498369625730
N      -0.454644892265837     -1.659055322877227      0.729494840436824
S       2.858324558343807      0.336686592563101     -0.473817332852350
H       0.577784665560571      0.947198501632919      0.068058100503794
H       0.699618219834069     -0.392554697158592     -1.059301232972369
H       1.555578302830177      0.894215923661204      3.461516017771904
H      -0.830332692556869     -2.009345626482660      1.605689474480796
H      -0.334949180919831     -2.445090753515828      0.100067728955627
H       3.136387574227411      0.949035587994739      0.684532224209251
