14

C       1.056039029699271      0.036111938679896     -0.058954361610309
C       0.480209620978446     -0.786898349471049      1.116037187195664
H       0.920978692868336     -1.792755432568789      1.066736944417151
C       0.877117238496906     -0.156433734983904      2.455278386437749
O       0.112958196012673      0.505420773804076      3.107747866631694
O       2.139631955034864     -0.359365249370605      2.870117212466723
N      -0.962859554966036     -0.895575965742152      1.086106659966050
S       2.870672349382092     -0.008624333211707     -0.203804971722944
H       0.705805826817608      1.072102865229067     -0.011426268178420
H       0.678400763145709     -0.393850984483702     -0.992462219417689
H       2.653497683224742     -0.810656985465581      2.179017708085070
H      -1.303511916186763     -0.945586317178775      0.132086111814595
H      -1.363971585499769     -0.077690317779861      1.536392156037399
H       3.133261805432810      1.104812579576821      0.495467640211863
